/*--------------------------------*- C++ -*----------------------------------*\
| =========                 |                                                 |
| \\      /  F ield         | OpenFOAM: The Open Source CFD Toolbox           |
|  \\    /   O peration     | Version:  2312                                  |
|   \\  /    A nd           | Website:  www.openfoam.com                      |
|    \\/     M anipulation  |                                                 |
\*---------------------------------------------------------------------------*/
// * * * * * * * * * * * * * * * * * * * * * * * * * * * * * * * * * * * * * //
FoamFile
{
    version         2;
    format          ascii;
    class           dictionary;
    object          fvSolution;
}

solvers
{
    "alpha.water.*"
    {
        nAlphaCorr      2;
        nAlphaSubCycles 1;

        MULESCorr       yes;
        nLimiterIter    3;

        solver          smoothSolver;
        smoother        symGaussSeidel;
        tolerance       1e-8;
        relTol          0;
    }

    "pcorr.*"
    {
        solver          PCG;
        preconditioner
        {
            preconditioner  GAMG;
            tolerance       1e-5;
            relTol          0;
            smoother        GaussSeidel;
        }
        tolerance       1e-5;
        relTol          0;
        maxIter         50;
    }

    p_rgh
    {
        solver           GAMG;
        tolerance        5e-9;
        relTol           0.01;
        smoother         GaussSeidel;
        maxIter          50;
    }

    p_rghFinal
    {
        $p_rgh;
        relTol          0;
    }

    "(U|k|epsilon|omega)"
    {
        solver          smoothSolver;
        smoother        symGaussSeidel;
        tolerance       1e-6;
        relTol          0.1;
        minIter         1;
    }

    "(U|k|omega|epsilon)Final"
    {
        $U;
        relTol          0;
    }

}

PIMPLE
{
    nOuterCorrectors 1;
    nCorrectors     3;
    nNonOrthogonalCorrectors 2;
    faceMomentum    yes;
    residualControl
    {
        "(U|k|epsilon|omega).*"		0.0001;
        "p_rgh"				0.0001;
    }
}

relaxationFactors
{
    fields
    {
        p_rgh           0.3;
    }
    equations
    {
        ".*"            0.7;
    }
}


// ************************************************************************* //
